test_write.raw
0, 100, 33, 0, 0, 60


42, 'Bus 42      ', 138, 4, 1, 1, 1, 1.03553, -16.0336, 1.1, 0.9, 1.1, 0.9
14, 'Bus 14      ', 138, 1, 1, 1, 1, 1.03553, -16.0336, 1.1, 0.9, 1.1, 0.9
13, 'Bus 13      ', 138, 1, 1, 1, 1, 1.05038, -15.1562, 1.1, 0.9, 1.1, 0.9
12, 'Bus 12      ', 138, 1, 1, 1, 1, 1.05519, -15.0755, 1.1, 0.9, 1.1, 0.9
11, 'Bus 11      ', 138, 1, 1, 1, 1, 1.05691, -14.7906, 1.1, 0.9, 1.1, 0.9
10, 'Bus 10      ', 138, 1, 1, 1, 1, 1.05099, -15.0972, 1.1, 0.9, 1.1, 0.9
9, 'Bus 9       ', 138, 1, 1, 1, 1, 1.05593, -14.9385, 1.1, 0.9, 1.1, 0.9
8, 'Bus 8       ', 138, 2, 1, 1, 1, 1.09, -13.3596, 1.1, 0.9, 1.1, 0.9
7, 'Bus 7       ', 138, 1, 1, 1, 1, 1.06152, -13.3596, 1.1, 0.9, 1.1, 0.9
6, 'Bus 6       ', 138, 2, 1, 1, 1, 1.07, -14.2209, 1.1, 0.9, 1.1, 0.9
5, 'Bus 5       ', 138, 1, 1, 1, 1, 1.01951, -8.7738, 1.1, 0.9, 1.1, 0.9
4, 'Bus 4       ', 138, 1, 1, 1, 1, 1.01767, -10.3128, 1.1, 0.9, 1.1, 0.9
3, 'Bus 3       ', 138, 2, 1, 1, 1, 1.01, -12.725, 1.1, 0.9, 1.1, 0.9
2, 'Bus 2       ', 138, 2, 1, 1, 1, 1.045, -4.9826, 1.1, 0.9, 1.1, 0.9
1, 'Bus 1       ', 138, 3, 1, 1, 1, 1.06, 0, 1.1, 0.9, 1.1, 0.9
